12
Jurecka U...U pl
O   -0.71497223   0.00012362  -1.56615281
C   -1.77628243   0.00004672  -0.94790291
N   -2.98435883   0.00013712  -1.61007311
C   -4.19452763   0.00002712  -0.96536621
C   -4.27246113  -0.00014138   0.37932369
C   -3.05454533  -0.00014738   1.17625169
N   -1.87589703  -0.00006688   0.41314339
O   -3.00845303  -0.00025738   2.39320509
H   -5.22096613   0.00039042   0.88829449
H   -2.92205533   0.00024852  -2.61425731
H   -0.98009593  -0.00008778   0.92014559
H   -5.06478233   0.00007912  -1.60445111